[General]
network = CampusNetwork
sim-time-limit = 180s
record-eventlog = false
debug-on-errors = false
**.vector-recording = false
**.scalar-recording = true

**.app[0].sendInterval = 0.05s

# ====================== Link Failure ======================
*.scenarioManager.script = xml("<script><at t='60.0'><set-param submodule='coreRouter.ethg[0].channel' name='disabled' value='true'/><set-param submodule='seRouter.ethg[0].channel' name='disabled' value='true'/></at><at t='120.0'><set-param submodule='coreRouter.ethg[0].channel' name='disabled' value='false'/><set-param submodule='seRouter.ethg[0].channel' name='disabled' value='false'/></at></script>")

# Traffic Generator
**.seHost*.app[0].typename = "TrafficGenerator"
**.eeHost*.app[0].typename = "TrafficGenerator"
**.bbaHost*.app[0].typename = "TrafficGenerator"
**.adminHost*.app[0].typename = "TrafficGenerator"

*.appServer.app[0].typename = "UdpSink"
*.appServer.app[0].localPort = 1234

**.app[0].trafficProfile = "CBR"
**.app[0].destAddress = "10.0.6.1"
**.app[0].destPort = 1234
**.app[0].startTime = 1s
**.app[0].stopTime = 175s
**.app[0].packetSize = 512

# ====================== STATIC ======================
[Config Static]
description = "Static Routing"
extends = General

*.coreRouter.typename = "StaticRouter"
*.seRouter.typename = "StaticRouter"
*.eeRouter.typename = "StaticRouter"
*.bbaRouter.typename = "StaticRouter"
*.adminRouter.typename = "StaticRouter"

*.coreRouter.numPorts = 6
*.seRouter.numPorts = 4
*.eeRouter.numPorts = 4
*.bbaRouter.numPorts = 4
*.adminRouter.numPorts = 4

*.coreRouter.ipAddress = "10.0.10.1"
*.seRouter.ipAddress = "10.0.10.2"
*.eeRouter.ipAddress = "10.0.10.6"
*.bbaRouter.ipAddress = "10.0.10.10"
*.adminRouter.ipAddress = "10.0.10.14"

*.coreRouter.routeTable = "10.0.1.0/255.255.255.0:0;10.0.2.0/255.255.255.0:1;10.0.3.0/255.255.255.0:2;10.0.4.0/255.255.255.0:3;10.0.6.0/255.255.255.0:5"
*.seRouter.routeTable = "0.0.0.0/0.0.0.0:0;10.0.6.0/255.255.255.0:0"
*.eeRouter.routeTable = "0.0.0.0/0.0.0.0:0;10.0.6.0/255.255.255.0:0"
*.bbaRouter.routeTable = "0.0.0.0/0.0.0.0:0;10.0.6.0/255.255.255.0:0"
*.adminRouter.routeTable = "0.0.0.0/0.0.0.0:0;10.0.6.0/255.255.255.0:0"

# CONFIG_ID: RIP_CNET26_SE
# ====================== RIP ======================
[Config RIP]
description = "RIP Routing"
extends = General
*.hasRip = true
*.*.rip.updateInterval = 30s
*.*.rip.splitHorizonMode = "SplitHorizon"

# CONFIG_ID: OSPF_CNET26_SE
# ====================== OSPF ======================
[Config OSPF]
description = "OSPF Routing"
extends = General
*.hasOspf = true
*.*.ospf.areas[0].areaID = "0.0.0.0"